Circuit: *voltage+current+resistor

Direct Newton iteration for .op point succeeded.

Date: Tue Jul 16 20:39:22 2019
Total elapsed time: 0.049 seconds.

tnom = 27
temp = 27
method = trap
totiter = 3
traniter = 0
tranpoints = 0
accept = 0
rejected = 0
matrix size = 4
fillins = 0
solver = Normal
Matrix Compiler1: 100 bytes object code size
Matrix Compiler2: 248 bytes object code size
