Circuit: *lcr circuit


Date: Wed Jul 17 14:24:48 2019
Total elapsed time: 0.094 seconds.

tnom = 27
temp = 27
method = trap
totiter = 0
traniter = 0
tranpoints = 0
accept = 0
rejected = 0
matrix size = 4
fillins = 1
solver = Normal

