Circuit: *full wave rectifier

.OP point found by inspection.
Semiconductor Device Operating Points:
                        --- Diodes ---
Name:      d2          d1
Model:    dmod        dmod
Id:      0.00e+00    0.00e+00
Vd:      0.00e+00    0.00e+00
Req:     1.04e+07    1.04e+07
CAP:     2.51e-12    2.51e-12



Date: Wed Jul 17 01:18:02 2019
Total elapsed time: 0.026 seconds.

tnom = 27
temp = 27
method = trap
totiter = 0
traniter = 0
tranpoints = 0
accept = 0
rejected = 0
matrix size = 5
fillins = 0
solver = Normal

