Circuit: *cmos amd nmos gates

Instance "m:2:2": Length shorter than recommended for a level 1 MOSFET.
Instance "m:2:2": Width narrower than recommended for a level 1 MOSFET.
Instance "m:2:1": Length shorter than recommended for a level 1 MOSFET.
Instance "m:2:1": Width narrower than recommended for a level 1 MOSFET.
Instance "m:1:2": Length shorter than recommended for a level 1 MOSFET.
Instance "m:1:2": Width narrower than recommended for a level 1 MOSFET.
Instance "m:1:1": Length shorter than recommended for a level 1 MOSFET.
Instance "m:1:1": Width narrower than recommended for a level 1 MOSFET.
Vin: Missing value, assumed 0V @ DC

Date: Wed Jul 17 15:19:45 2019
Total elapsed time: 0.384 seconds.

tnom = 27
temp = 27
method = trap
totiter = 10043
traniter = 0
tranpoints = 0
accept = 0
rejected = 0
matrix size = 8
fillins = 0
solver = Normal
Matrix Compiler1: 228 bytes object code size  0.3/0.2/[0.2]
Matrix Compiler2: off  [0.2]/0.3/0.2

