Circuit: *full wave rectifier

.OP point found by inspection.

Date: Wed Jul 17 01:39:33 2019
Total elapsed time: 0.142 seconds.

tnom = 27
temp = 27
method = modified trap
totiter = 2096
traniter = 2096
tranpoints = 1045
accept = 1045
rejected = 0
matrix size = 5
fillins = 0
solver = Normal
Matrix Compiler1: 168 bytes object code size  0.1/0.1/[0.0]
Matrix Compiler2: 355 bytes object code size  0.1/0.1/[0.1]

