Circuit: * C:\Users\dell\Desktop\LT spice\opamp with sin\Draft1.asc

WARNING: Less than two connections to node Y.  This node is used by A1.
Direct Newton iteration for .op point succeeded.

Date: Wed Jul 17 23:39:13 2019
Total elapsed time: 0.172 seconds.

tnom = 27
temp = 27
method = modified trap
totiter = 5138
traniter = 5135
tranpoints = 2565
accept = 2363
rejected = 202
matrix size = 7
fillins = 0
solver = Normal
Matrix Compiler1:       9 opcodes  0.1/[0.0]/0.1
Matrix Compiler2: 319 bytes object code size  0.1/0.1/[0.1]

