Circuit: *opamp working with sub circuit analysis

WARNING: Less than two connections to node IN1.  This node is used by R3.
Direct Newton iteration for .op point succeeded.

Date: Wed Jul 17 21:30:08 2019
Total elapsed time: 0.144 seconds.

tnom = 27
temp = 27
method = modified trap
totiter = 2109
traniter = 2096
tranpoints = 1049
accept = 1049
rejected = 0
matrix size = 32
fillins = 38
solver = Normal
Matrix Compiler1: 3.17 KB object code size  0.9/0.6/[0.4]
Matrix Compiler2: off  [0.4]/0.7/0.5

