Circuit: *opamp working with sub circuit analysis

WARNING: Less than two connections to node 1.  This node is used by R3.
Direct Newton iteration for .op point succeeded.

Date: Wed Jul 17 22:32:48 2019
Total elapsed time: 0.093 seconds.

tnom = 27
temp = 27
method = modified trap
totiter = 4005
traniter = 3992
tranpoints = 1766
accept = 1462
rejected = 304
matrix size = 60
fillins = 115
solver = Normal
Matrix Compiler1: 9.08 KB object code size  2.5/1.3/[0.8]
Matrix Compiler2: 6.93 KB object code size  0.9/1.2/[0.7]

