Circuit: *lcr circuit

.OP point found by inspection.

Date: Wed Jul 17 12:33:57 2019
Total elapsed time: 0.059 seconds.

tnom = 27
temp = 27
method = modified trap
totiter = 2130
traniter = 2130
tranpoints = 1066
accept = 1064
rejected = 2
matrix size = 4
fillins = 0
solver = Normal
Matrix Compiler1: 100 bytes object code size  0.1/0.1/[0.0]
Matrix Compiler2: 248 bytes object code size  0.1/0.1/[0.1]

