Circuit: * C:\Users\dell\Desktop\LT spice\Draft1.asc

.OP point found by inspection.

Date: Wed Jul 17 18:33:45 2019
Total elapsed time: 0.114 seconds.

tnom = 27
temp = 27
method = modified trap
totiter = 2168
traniter = 2168
tranpoints = 1042
accept = 1042
rejected = 0
matrix size = 3
fillins = 0
solver = Normal
Matrix Compiler1: 50 bytes object code size  0.0/0.1/[0.0]
Matrix Compiler2: 175 bytes object code size  0.1/0.2/[0.1]

