Circuit: * forward bias led

.OP point found by inspection.

Date: Wed Jul 17 19:08:19 2019
Total elapsed time: 0.042 seconds.

tnom = 27
temp = 27
method = modified trap
totiter = 2082
traniter = 2082
tranpoints = 1042
accept = 1042
rejected = 0
matrix size = 4
fillins = 0
solver = Normal
Matrix Compiler1: 100 bytes object code size  0.1/0.1/[0.0]
Matrix Compiler2: 248 bytes object code size  0.1/0.1/[0.0]

