Circuit: * C:\Users\dell\Desktop\LT spice\led\and.asc


Date: Wed Jul 17 20:00:55 2019
Total elapsed time: 0.311 seconds.

tnom = 27
temp = 27
method = trap
totiter = 20003
traniter = 0
tranpoints = 0
accept = 0
rejected = 0
matrix size = 4
fillins = 0
solver = Normal
Matrix Compiler1:       5 opcodes  0.1/[0.0]/0.0
Matrix Compiler2:      18 opcodes  0.1/[0.0]/0.1

