Circuit: *rc circuit with ac analysis


Date: Wed Jul 17 14:14:09 2019
Total elapsed time: 0.098 seconds.

tnom = 27
temp = 27
method = trap
totiter = 0
traniter = 0
tranpoints = 0
accept = 0
rejected = 0
matrix size = 3
fillins = 0
solver = Normal

