Circuit: *halfwaverectifier

.OP point found by inspection.

Date: Wed Jul 17 01:29:29 2019
Total elapsed time: 0.078 seconds.

tnom = 27
temp = 27
method = modified trap
totiter = 2091
traniter = 2091
tranpoints = 1044
accept = 1044
rejected = 0
matrix size = 4
fillins = 0
solver = Normal
Matrix Compiler1: 118 bytes object code size  0.1/0.1/[0.1]
Matrix Compiler2: 242 bytes object code size  0.1/0.1/[0.0]

