Circuit: *rc circuit with unit step voltage source

.OP point found by inspection.

Date: Wed Jul 17 12:57:08 2019
Total elapsed time: 0.059 seconds.

tnom = 27
temp = 27
method = modified trap
totiter = 2110
traniter = 2110
tranpoints = 1056
accept = 1054
rejected = 2
matrix size = 3
fillins = 0
solver = Normal
Matrix Compiler1: 50 bytes object code size  0.0/0.0/[0.0]
Matrix Compiler2: 175 bytes object code size  0.1/0.1/[0.0]

