Circuit: *cmos amd nmos gates

Instance "m2": Length shorter than recommended for a level 1 MOSFET.
Instance "m1": Length shorter than recommended for a level 1 MOSFET.
Vin: Missing value, assumed 0V @ DC

Date: Tue Jul 16 22:42:59 2019
Total elapsed time: 0.052 seconds.

tnom = 27
temp = 27
method = trap
totiter = 10013
traniter = 0
tranpoints = 0
accept = 0
rejected = 0
matrix size = 5
fillins = 0
solver = Normal
Matrix Compiler1:       8 opcodes  0.1/[0.1]/0.1
Matrix Compiler2: 335 bytes object code size  0.1/0.2/[0.1]

